<?xml version="1.0" encoding="UTF-8"?>
<additional xmlns:xsi="http://www.w3.org/2001/XMLSchema-instance" xsi:noNamespaceSchemaLocation="http://sumo.dlr.de/xsd/additional_file.xsd">
    <tlLogic id="J0" type="static" programID="0" offset="0">
        <phase duration="30" state="GGrrrrGGrrrr"/>
        <phase duration="3" state="yyyrrryyyrrr"/>
        <phase duration="30" state="rrrGGGrrrGGG"/>
        <phase duration="3" state="rrryyyrrryyy"/>
    </tlLogic>
</additional>