<?xml version="1.0" encoding="UTF-8"?>
<configuration xmlns:xsi="http://www.w3.org/2001/XMLSchema-instance" xsi:noNamespaceSchemaLocation="http://sumo.dlr.de/xsd/sumoConfiguration.xsd">
    <input>
        <net-file value="manual_traffic_light.net.xml"/>
        <route-files value="manual_traffic_light_routes.rou.xml"/>
        <additional-files value="manual_traffic_light_tls.add.xml"/>
    </input>
    <time>
        <begin value="0"/>
        <end value="3600"/>
        <step-length value="0.1"/>
    </time>
    <processing>
        <ignore-junction-blocker value="0"/>
        <collision.action value="warn"/>
    </processing>
    <routing>
        <device.rerouting.adaptation-interval value="10"/>
    </routing>
    <report>
        <verbose value="true"/>
        <duration-log.statistics value="true"/>
        <no-step-log value="true"/>
    </report>
</configuration>