<?xml version="1.0" encoding="UTF-8"?>
<routes xmlns:xsi="http://www.w3.org/2001/XMLSchema-instance" xsi:noNamespaceSchemaLocation="http://sumo.dlr.de/xsd/routes_file.xsd">

    <!-- Pedestrian types -->
    <vType id="pedestrian" vClass="pedestrian" speed="1.34" accel="2.0" decel="2.0"/>

    <!-- Pedestrian routes -->
    <route id="ped_ns" edges="E0 E1"/>
    <route id="ped_sn" edges="E2 E3"/>
    <route id="ped_ew" edges="E4 E5"/>
    <route id="ped_we" edges="E6 E7"/>

    <!-- Pedestrian flows -->
    <flow id="ped_flow_ns" type="pedestrian" route="ped_ns" begin="0" end="3600" period="15"/>
    <flow id="ped_flow_sn" type="pedestrian" route="ped_sn" begin="0" end="3600" period="20"/>
    <flow id="ped_flow_ew" type="pedestrian" route="ped_ew" begin="0" end="3600" period="18"/>
    <flow id="ped_flow_we" type="pedestrian" route="ped_we" begin="0" end="3600" period="25"/>

</routes>