<?xml version="1.0" encoding="UTF-8"?>

<!-- generated on 2025-09-21 02:44:09.256589 by randomTrips.py UNKNOWN
<configuration>
    <net-file value="sim/simple_grid.net.xml"/>
    <route-file value="sim/simple_grid_routes.rou.xml"/>
    <period value="2.0"/>
</configuration>
-->

<!-- generated on 2025-09-21 02:44:09 by Eclipse SUMO duarouter Version 1.21.0
<duarouterConfiguration xmlns:xsi="http://www.w3.org/2001/XMLSchema-instance" xsi:noNamespaceSchemaLocation="http://sumo.dlr.de/xsd/duarouterConfiguration.xsd">

    <input>
        <net-file value="sim/simple_grid.net.xml"/>
        <route-files value="trips.trips.xml"/>
    </input>

    <output>
        <output-file value="sim/simple_grid_routes.rou.xml"/>
        <alternatives-output value="NUL"/>
    </output>

    <time>
        <begin value="0"/>
        <end value="3600.0"/>
    </time>

    <report>
        <no-warnings value="true"/>
        <ignore-errors value="true"/>
        <no-step-log value="true"/>
    </report>

</duarouterConfiguration>
-->

<routes xmlns:xsi="http://www.w3.org/2001/XMLSchema-instance" xsi:noNamespaceSchemaLocation="http://sumo.dlr.de/xsd/routes_file.xsd">
    <vehicle id="1" depart="2.00">
        <route edges="A1A0 A0B0"/>
    </vehicle>
    <vehicle id="2" depart="4.00">
        <route edges="B0B1"/>
    </vehicle>
    <vehicle id="3" depart="6.00">
        <route edges="B1B0 B0A0 A0A1"/>
    </vehicle>
    <vehicle id="4" depart="8.00">
        <route edges="A1B1 B1B0 B0A0 A0A1"/>
    </vehicle>
    <vehicle id="10" depart="20.00">
        <route edges="B1A1 A1A0 A0B0 B0B1"/>
    </vehicle>
    <vehicle id="11" depart="22.00">
        <route edges="A1A0 A0B0"/>
    </vehicle>
    <vehicle id="13" depart="26.00">
        <route edges="A0A1"/>
    </vehicle>
    <vehicle id="15" depart="30.00">
        <route edges="B1A1 A1A0 A0B0 B0B1"/>
    </vehicle>
    <vehicle id="16" depart="32.00">
        <route edges="B0A0 A0A1 A1B1 B1B0"/>
    </vehicle>
    <vehicle id="17" depart="34.00">
        <route edges="A1B1 B1B0 B0A0"/>
    </vehicle>
    <vehicle id="21" depart="42.00">
        <route edges="A0B0 B0B1 B1A1 A1A0"/>
    </vehicle>
    <vehicle id="24" depart="48.00">
        <route edges="B0B1 B1A1 A1A0"/>
    </vehicle>
    <vehicle id="25" depart="50.00">
        <route edges="A1A0 A0B0"/>
    </vehicle>
    <vehicle id="28" depart="56.00">
        <route edges="A0B0 B0B1"/>
    </vehicle>
    <vehicle id="32" depart="64.00">
        <route edges="B1A1"/>
    </vehicle>
    <vehicle id="34" depart="68.00">
        <route edges="A1A0"/>
    </vehicle>
    <vehicle id="38" depart="76.00">
        <route edges="B1B0 B0A0 A0A1 A1B1"/>
    </vehicle>
    <vehicle id="39" depart="78.00">
        <route edges="A1A0 A0B0"/>
    </vehicle>
    <vehicle id="41" depart="82.00">
        <route edges="B0A0 A0A1 A1B1 B1B0"/>
    </vehicle>
    <vehicle id="43" depart="86.00">
        <route edges="B1B0 B0A0"/>
    </vehicle>
    <vehicle id="44" depart="88.00">
        <route edges="A0A1"/>
    </vehicle>
    <vehicle id="47" depart="94.00">
        <route edges="A0A1 A1B1"/>
    </vehicle>
    <vehicle id="48" depart="96.00">
        <route edges="B1B0 B0A0"/>
    </vehicle>
    <vehicle id="52" depart="104.00">
        <route edges="A1A0 A0B0 B0B1"/>
    </vehicle>
    <vehicle id="53" depart="106.00">
        <route edges="A0A1 A1B1"/>
    </vehicle>
    <vehicle id="54" depart="108.00">
        <route edges="A1B1 B1B0"/>
    </vehicle>
    <vehicle id="58" depart="116.00">
        <route edges="A1A0 A0B0 B0B1"/>
    </vehicle>
    <vehicle id="63" depart="126.00">
        <route edges="A0A1 A1B1 B1B0"/>
    </vehicle>
    <vehicle id="66" depart="132.00">
        <route edges="B1B0"/>
    </vehicle>
    <vehicle id="67" depart="134.00">
        <route edges="A0A1 A1B1"/>
    </vehicle>
    <vehicle id="69" depart="138.00">
        <route edges="B1A1 A1A0 A0B0"/>
    </vehicle>
    <vehicle id="70" depart="140.00">
        <route edges="A1B1 B1B0 B0A0"/>
    </vehicle>
    <vehicle id="71" depart="142.00">
        <route edges="A1A0 A0B0 B0B1 B1A1"/>
    </vehicle>
    <vehicle id="74" depart="148.00">
        <route edges="A0B0 B0B1 B1A1 A1A0"/>
    </vehicle>
    <vehicle id="76" depart="152.00">
        <route edges="A1B1 B1B0 B0A0"/>
    </vehicle>
    <vehicle id="79" depart="158.00">
        <route edges="A0B0"/>
    </vehicle>
    <vehicle id="83" depart="166.00">
        <route edges="A0B0 B0B1"/>
    </vehicle>
    <vehicle id="84" depart="168.00">
        <route edges="A0B0"/>
    </vehicle>
    <vehicle id="85" depart="170.00">
        <route edges="B1B0 B0A0"/>
    </vehicle>
    <vehicle id="87" depart="174.00">
        <route edges="B1A1 A1A0 A0B0"/>
    </vehicle>
    <vehicle id="88" depart="176.00">
        <route edges="A0A1 A1B1"/>
    </vehicle>
    <vehicle id="89" depart="178.00">
        <route edges="A1B1"/>
    </vehicle>
    <vehicle id="90" depart="180.00">
        <route edges="B0B1"/>
    </vehicle>
    <vehicle id="91" depart="182.00">
        <route edges="B1B0 B0A0 A0A1"/>
    </vehicle>
    <vehicle id="93" depart="186.00">
        <route edges="B1A1 A1A0 A0B0"/>
    </vehicle>
    <vehicle id="98" depart="196.00">
        <route edges="B0A0 A0A1"/>
    </vehicle>
    <vehicle id="100" depart="200.00">
        <route edges="B1B0"/>
    </vehicle>
    <vehicle id="101" depart="202.00">
        <route edges="B1A1 A1A0 A0B0"/>
    </vehicle>
    <vehicle id="103" depart="206.00">
        <route edges="A1B1 B1B0 B0A0 A0A1"/>
    </vehicle>
    <vehicle id="104" depart="208.00">
        <route edges="A1B1 B1B0"/>
    </vehicle>
    <vehicle id="105" depart="210.00">
        <route edges="A1A0 A0B0 B0B1 B1A1"/>
    </vehicle>
    <vehicle id="106" depart="212.00">
        <route edges="A1B1"/>
    </vehicle>
    <vehicle id="107" depart="214.00">
        <route edges="B1B0"/>
    </vehicle>
    <vehicle id="109" depart="218.00">
        <route edges="A0B0 B0B1 B1A1 A1A0"/>
    </vehicle>
    <vehicle id="110" depart="220.00">
        <route edges="B1B0 B0A0"/>
    </vehicle>
    <vehicle id="112" depart="224.00">
        <route edges="A0A1 A1B1 B1B0 B0A0"/>
    </vehicle>
    <vehicle id="119" depart="238.00">
        <route edges="B0A0"/>
    </vehicle>
    <vehicle id="120" depart="240.00">
        <route edges="A1B1 B1B0 B0A0"/>
    </vehicle>
    <vehicle id="121" depart="242.00">
        <route edges="B0A0 A0A1 A1B1 B1B0"/>
    </vehicle>
    <vehicle id="122" depart="244.00">
        <route edges="A0B0 B0B1"/>
    </vehicle>
    <vehicle id="124" depart="248.00">
        <route edges="B0B1 B1A1 A1A0"/>
    </vehicle>
    <vehicle id="125" depart="250.00">
        <route edges="A1A0 A0B0 B0B1 B1A1"/>
    </vehicle>
    <vehicle id="126" depart="252.00">
        <route edges="A0A1 A1B1"/>
    </vehicle>
    <vehicle id="127" depart="254.00">
        <route edges="B1B0"/>
    </vehicle>
    <vehicle id="130" depart="260.00">
        <route edges="B1B0"/>
    </vehicle>
    <vehicle id="131" depart="262.00">
        <route edges="A1A0 A0B0"/>
    </vehicle>
    <vehicle id="132" depart="264.00">
        <route edges="B1A1 A1A0 A0B0 B0B1"/>
    </vehicle>
    <vehicle id="133" depart="266.00">
        <route edges="B0A0 A0A1 A1B1 B1B0"/>
    </vehicle>
    <vehicle id="135" depart="270.00">
        <route edges="B1A1 A1A0"/>
    </vehicle>
    <vehicle id="138" depart="276.00">
        <route edges="A0A1 A1B1 B1B0 B0A0"/>
    </vehicle>
    <vehicle id="140" depart="280.00">
        <route edges="B0B1 B1A1 A1A0 A0B0"/>
    </vehicle>
    <vehicle id="141" depart="282.00">
        <route edges="B0B1 B1A1 A1A0"/>
    </vehicle>
    <vehicle id="142" depart="284.00">
        <route edges="A1B1 B1B0"/>
    </vehicle>
    <vehicle id="146" depart="292.00">
        <route edges="B0B1 B1A1 A1A0"/>
    </vehicle>
    <vehicle id="148" depart="296.00">
        <route edges="A1B1 B1B0 B0A0 A0A1"/>
    </vehicle>
    <vehicle id="149" depart="298.00">
        <route edges="A0A1 A1B1 B1B0"/>
    </vehicle>
    <vehicle id="150" depart="300.00">
        <route edges="B1B0 B0A0"/>
    </vehicle>
    <vehicle id="152" depart="304.00">
        <route edges="A0B0"/>
    </vehicle>
    <vehicle id="154" depart="308.00">
        <route edges="B1A1"/>
    </vehicle>
    <vehicle id="158" depart="316.00">
        <route edges="A1B1 B1B0 B0A0"/>
    </vehicle>
    <vehicle id="164" depart="328.00">
        <route edges="B1A1"/>
    </vehicle>
    <vehicle id="165" depart="330.00">
        <route edges="B1A1 A1A0"/>
    </vehicle>
    <vehicle id="167" depart="334.00">
        <route edges="B1A1"/>
    </vehicle>
    <vehicle id="168" depart="336.00">
        <route edges="A0B0 B0B1 B1A1"/>
    </vehicle>
    <vehicle id="170" depart="340.00">
        <route edges="B1A1 A1A0 A0B0"/>
    </vehicle>
    <vehicle id="172" depart="344.00">
        <route edges="A1A0 A0B0 B0B1 B1A1"/>
    </vehicle>
    <vehicle id="175" depart="350.00">
        <route edges="B1B0 B0A0"/>
    </vehicle>
    <vehicle id="176" depart="352.00">
        <route edges="B1B0 B0A0 A0A1"/>
    </vehicle>
    <vehicle id="179" depart="358.00">
        <route edges="A0A1 A1B1"/>
    </vehicle>
    <vehicle id="180" depart="360.00">
        <route edges="B0B1 B1A1 A1A0"/>
    </vehicle>
    <vehicle id="181" depart="362.00">
        <route edges="B0A0"/>
    </vehicle>
    <vehicle id="182" depart="364.00">
        <route edges="A1B1 B1B0 B0A0"/>
    </vehicle>
    <vehicle id="183" depart="366.00">
        <route edges="A1A0 A0B0 B0B1"/>
    </vehicle>
    <vehicle id="184" depart="368.00">
        <route edges="A0A1 A1B1 B1B0"/>
    </vehicle>
    <vehicle id="186" depart="372.00">
        <route edges="B0B1"/>
    </vehicle>
    <vehicle id="188" depart="376.00">
        <route edges="B0B1 B1A1 A1A0"/>
    </vehicle>
    <vehicle id="189" depart="378.00">
        <route edges="A1A0 A0B0 B0B1 B1A1"/>
    </vehicle>
    <vehicle id="190" depart="380.00">
        <route edges="B0B1 B1A1 A1A0"/>
    </vehicle>
    <vehicle id="195" depart="390.00">
        <route edges="B1B0 B0A0"/>
    </vehicle>
    <vehicle id="198" depart="396.00">
        <route edges="A1B1 B1B0 B0A0"/>
    </vehicle>
    <vehicle id="201" depart="402.00">
        <route edges="A1B1 B1B0"/>
    </vehicle>
    <vehicle id="202" depart="404.00">
        <route edges="B1A1 A1A0 A0B0"/>
    </vehicle>
    <vehicle id="203" depart="406.00">
        <route edges="A0A1 A1B1 B1B0 B0A0"/>
    </vehicle>
    <vehicle id="204" depart="408.00">
        <route edges="B0B1 B1A1 A1A0"/>
    </vehicle>
    <vehicle id="205" depart="410.00">
        <route edges="B1A1"/>
    </vehicle>
    <vehicle id="206" depart="412.00">
        <route edges="B0B1 B1A1 A1A0 A0B0"/>
    </vehicle>
    <vehicle id="211" depart="422.00">
        <route edges="A0B0 B0B1"/>
    </vehicle>
    <vehicle id="214" depart="428.00">
        <route edges="B1A1"/>
    </vehicle>
    <vehicle id="215" depart="430.00">
        <route edges="A0A1 A1B1"/>
    </vehicle>
    <vehicle id="217" depart="434.00">
        <route edges="B0A0 A0A1"/>
    </vehicle>
    <vehicle id="218" depart="436.00">
        <route edges="A0B0 B0B1 B1A1"/>
    </vehicle>
    <vehicle id="221" depart="442.00">
        <route edges="B0A0 A0A1 A1B1 B1B0"/>
    </vehicle>
    <vehicle id="222" depart="444.00">
        <route edges="B1B0 B0A0"/>
    </vehicle>
    <vehicle id="227" depart="454.00">
        <route edges="A0B0 B0B1"/>
    </vehicle>
    <vehicle id="229" depart="458.00">
        <route edges="B0B1 B1A1 A1A0"/>
    </vehicle>
    <vehicle id="231" depart="462.00">
        <route edges="A1A0"/>
    </vehicle>
    <vehicle id="233" depart="466.00">
        <route edges="A0B0 B0B1"/>
    </vehicle>
    <vehicle id="235" depart="470.00">
        <route edges="A1B1 B1B0 B0A0"/>
    </vehicle>
    <vehicle id="237" depart="474.00">
        <route edges="A1B1 B1B0"/>
    </vehicle>
    <vehicle id="239" depart="478.00">
        <route edges="B1A1"/>
    </vehicle>
    <vehicle id="240" depart="480.00">
        <route edges="A1B1 B1B0 B0A0 A0A1"/>
    </vehicle>
    <vehicle id="241" depart="482.00">
        <route edges="A1A0 A0B0 B0B1 B1A1"/>
    </vehicle>
    <vehicle id="244" depart="488.00">
        <route edges="B0A0"/>
    </vehicle>
    <vehicle id="245" depart="490.00">
        <route edges="A0B0"/>
    </vehicle>
    <vehicle id="246" depart="492.00">
        <route edges="A1B1 B1B0 B0A0 A0A1"/>
    </vehicle>
    <vehicle id="247" depart="494.00">
        <route edges="A1A0 A0B0 B0B1"/>
    </vehicle>
    <vehicle id="250" depart="500.00">
        <route edges="B0A0 A0A1"/>
    </vehicle>
    <vehicle id="251" depart="502.00">
        <route edges="A1B1 B1B0 B0A0"/>
    </vehicle>
    <vehicle id="254" depart="508.00">
        <route edges="A0A1 A1B1"/>
    </vehicle>
    <vehicle id="255" depart="510.00">
        <route edges="A0B0 B0B1 B1A1 A1A0"/>
    </vehicle>
    <vehicle id="257" depart="514.00">
        <route edges="B1A1"/>
    </vehicle>
    <vehicle id="259" depart="518.00">
        <route edges="A0A1 A1B1 B1B0 B0A0"/>
    </vehicle>
    <vehicle id="261" depart="522.00">
        <route edges="B0B1 B1A1"/>
    </vehicle>
    <vehicle id="262" depart="524.00">
        <route edges="B0B1 B1A1"/>
    </vehicle>
    <vehicle id="265" depart="530.00">
        <route edges="A0B0 B0B1"/>
    </vehicle>
    <vehicle id="267" depart="534.00">
        <route edges="B0B1 B1A1"/>
    </vehicle>
    <vehicle id="271" depart="542.00">
        <route edges="A0A1"/>
    </vehicle>
    <vehicle id="272" depart="544.00">
        <route edges="A1A0 A0B0 B0B1"/>
    </vehicle>
    <vehicle id="273" depart="546.00">
        <route edges="B1B0 B0A0 A0A1 A1B1"/>
    </vehicle>
    <vehicle id="275" depart="550.00">
        <route edges="B0B1"/>
    </vehicle>
    <vehicle id="278" depart="556.00">
        <route edges="A0A1 A1B1 B1B0"/>
    </vehicle>
    <vehicle id="279" depart="558.00">
        <route edges="B1A1 A1A0"/>
    </vehicle>
    <vehicle id="282" depart="564.00">
        <route edges="B1A1"/>
    </vehicle>
    <vehicle id="283" depart="566.00">
        <route edges="A0A1 A1B1 B1B0"/>
    </vehicle>
    <vehicle id="284" depart="568.00">
        <route edges="B0B1 B1A1"/>
    </vehicle>
    <vehicle id="287" depart="574.00">
        <route edges="A1A0 A0B0 B0B1 B1A1"/>
    </vehicle>
    <vehicle id="288" depart="576.00">
        <route edges="B0A0 A0A1 A1B1"/>
    </vehicle>
    <vehicle id="290" depart="580.00">
        <route edges="A1A0 A0B0 B0B1 B1A1"/>
    </vehicle>
    <vehicle id="293" depart="586.00">
        <route edges="A1B1 B1B0 B0A0"/>
    </vehicle>
    <vehicle id="294" depart="588.00">
        <route edges="A1B1 B1B0 B0A0 A0A1"/>
    </vehicle>
    <vehicle id="295" depart="590.00">
        <route edges="B1A1 A1A0 A0B0"/>
    </vehicle>
    <vehicle id="296" depart="592.00">
        <route edges="A0B0 B0B1 B1A1"/>
    </vehicle>
    <vehicle id="298" depart="596.00">
        <route edges="B0B1 B1A1 A1A0"/>
    </vehicle>
    <vehicle id="299" depart="598.00">
        <route edges="A0A1 A1B1 B1B0"/>
    </vehicle>
    <vehicle id="302" depart="604.00">
        <route edges="B0B1"/>
    </vehicle>
    <vehicle id="305" depart="610.00">
        <route edges="B0B1 B1A1 A1A0"/>
    </vehicle>
    <vehicle id="306" depart="612.00">
        <route edges="B0A0 A0A1 A1B1"/>
    </vehicle>
    <vehicle id="307" depart="614.00">
        <route edges="B0A0 A0A1 A1B1"/>
    </vehicle>
    <vehicle id="308" depart="616.00">
        <route edges="B0B1 B1A1 A1A0"/>
    </vehicle>
    <vehicle id="309" depart="618.00">
        <route edges="B0B1 B1A1 A1A0"/>
    </vehicle>
    <vehicle id="313" depart="626.00">
        <route edges="A0B0"/>
    </vehicle>
    <vehicle id="315" depart="630.00">
        <route edges="B1B0 B0A0"/>
    </vehicle>
    <vehicle id="317" depart="634.00">
        <route edges="A0B0"/>
    </vehicle>
    <vehicle id="320" depart="640.00">
        <route edges="B1B0 B0A0"/>
    </vehicle>
    <vehicle id="321" depart="642.00">
        <route edges="B0B1 B1A1 A1A0 A0B0"/>
    </vehicle>
    <vehicle id="324" depart="648.00">
        <route edges="A1B1"/>
    </vehicle>
    <vehicle id="326" depart="652.00">
        <route edges="B1B0 B0A0 A0A1 A1B1"/>
    </vehicle>
    <vehicle id="331" depart="662.00">
        <route edges="B1B0 B0A0 A0A1"/>
    </vehicle>
    <vehicle id="333" depart="666.00">
        <route edges="B1A1 A1A0 A0B0"/>
    </vehicle>
    <vehicle id="334" depart="668.00">
        <route edges="B0A0 A0A1 A1B1"/>
    </vehicle>
    <vehicle id="337" depart="674.00">
        <route edges="B0A0"/>
    </vehicle>
    <vehicle id="339" depart="678.00">
        <route edges="A0B0"/>
    </vehicle>
    <vehicle id="340" depart="680.00">
        <route edges="B0B1 B1A1 A1A0 A0B0"/>
    </vehicle>
    <vehicle id="342" depart="684.00">
        <route edges="A0A1 A1B1"/>
    </vehicle>
    <vehicle id="344" depart="688.00">
        <route edges="A0B0 B0B1"/>
    </vehicle>
    <vehicle id="347" depart="694.00">
        <route edges="B1A1 A1A0 A0B0 B0B1"/>
    </vehicle>
    <vehicle id="349" depart="698.00">
        <route edges="A1B1 B1B0 B0A0"/>
    </vehicle>
    <vehicle id="352" depart="704.00">
        <route edges="A0B0 B0B1 B1A1 A1A0"/>
    </vehicle>
    <vehicle id="355" depart="710.00">
        <route edges="B0B1"/>
    </vehicle>
    <vehicle id="356" depart="712.00">
        <route edges="B1B0 B0A0"/>
    </vehicle>
    <vehicle id="357" depart="714.00">
        <route edges="A1B1 B1B0 B0A0 A0A1"/>
    </vehicle>
    <vehicle id="358" depart="716.00">
        <route edges="A0A1 A1B1"/>
    </vehicle>
    <vehicle id="359" depart="718.00">
        <route edges="A1A0"/>
    </vehicle>
    <vehicle id="360" depart="720.00">
        <route edges="A0A1 A1B1 B1B0"/>
    </vehicle>
    <vehicle id="362" depart="724.00">
        <route edges="B1B0"/>
    </vehicle>
    <vehicle id="363" depart="726.00">
        <route edges="B0B1 B1A1 A1A0"/>
    </vehicle>
    <vehicle id="368" depart="736.00">
        <route edges="A1B1 B1B0 B0A0 A0A1"/>
    </vehicle>
    <vehicle id="369" depart="738.00">
        <route edges="A1A0"/>
    </vehicle>
    <vehicle id="370" depart="740.00">
        <route edges="B0B1 B1A1"/>
    </vehicle>
    <vehicle id="371" depart="742.00">
        <route edges="A1A0 A0B0 B0B1"/>
    </vehicle>
    <vehicle id="376" depart="752.00">
        <route edges="A1B1 B1B0 B0A0"/>
    </vehicle>
    <vehicle id="378" depart="756.00">
        <route edges="B0A0 A0A1 A1B1"/>
    </vehicle>
    <vehicle id="379" depart="758.00">
        <route edges="A0B0 B0B1 B1A1 A1A0"/>
    </vehicle>
    <vehicle id="380" depart="760.00">
        <route edges="B1A1 A1A0 A0B0 B0B1"/>
    </vehicle>
    <vehicle id="381" depart="762.00">
        <route edges="B1A1 A1A0 A0B0"/>
    </vehicle>
    <vehicle id="382" depart="764.00">
        <route edges="B0A0 A0A1 A1B1 B1B0"/>
    </vehicle>
    <vehicle id="384" depart="768.00">
        <route edges="A0A1 A1B1 B1B0"/>
    </vehicle>
    <vehicle id="387" depart="774.00">
        <route edges="B0A0 A0A1"/>
    </vehicle>
    <vehicle id="388" depart="776.00">
        <route edges="B1B0"/>
    </vehicle>
    <vehicle id="389" depart="778.00">
        <route edges="A1B1 B1B0 B0A0 A0A1"/>
    </vehicle>
    <vehicle id="392" depart="784.00">
        <route edges="A1A0 A0B0 B0B1 B1A1"/>
    </vehicle>
    <vehicle id="394" depart="788.00">
        <route edges="B0A0 A0A1 A1B1"/>
    </vehicle>
    <vehicle id="395" depart="790.00">
        <route edges="B1B0 B0A0"/>
    </vehicle>
    <vehicle id="397" depart="794.00">
        <route edges="A1A0 A0B0 B0B1 B1A1"/>
    </vehicle>
    <vehicle id="398" depart="796.00">
        <route edges="A1B1 B1B0"/>
    </vehicle>
    <vehicle id="400" depart="800.00">
        <route edges="A1A0"/>
    </vehicle>
    <vehicle id="401" depart="802.00">
        <route edges="B0A0 A0A1 A1B1 B1B0"/>
    </vehicle>
    <vehicle id="404" depart="808.00">
        <route edges="B0A0"/>
    </vehicle>
    <vehicle id="406" depart="812.00">
        <route edges="A0B0 B0B1"/>
    </vehicle>
    <vehicle id="409" depart="818.00">
        <route edges="B0B1"/>
    </vehicle>
    <vehicle id="411" depart="822.00">
        <route edges="B0B1 B1A1"/>
    </vehicle>
    <vehicle id="412" depart="824.00">
        <route edges="B1B0 B0A0 A0A1 A1B1"/>
    </vehicle>
    <vehicle id="413" depart="826.00">
        <route edges="A0A1 A1B1 B1B0 B0A0"/>
    </vehicle>
    <vehicle id="416" depart="832.00">
        <route edges="B0A0 A0A1 A1B1"/>
    </vehicle>
    <vehicle id="418" depart="836.00">
        <route edges="B0B1 B1A1 A1A0 A0B0"/>
    </vehicle>
    <vehicle id="419" depart="838.00">
        <route edges="A1B1 B1B0"/>
    </vehicle>
    <vehicle id="420" depart="840.00">
        <route edges="A1A0 A0B0 B0B1"/>
    </vehicle>
    <vehicle id="421" depart="842.00">
        <route edges="B0B1 B1A1"/>
    </vehicle>
    <vehicle id="422" depart="844.00">
        <route edges="B1A1"/>
    </vehicle>
    <vehicle id="424" depart="848.00">
        <route edges="B0B1 B1A1"/>
    </vehicle>
    <vehicle id="427" depart="854.00">
        <route edges="B1B0"/>
    </vehicle>
    <vehicle id="433" depart="866.00">
        <route edges="A1A0"/>
    </vehicle>
    <vehicle id="440" depart="880.00">
        <route edges="A1A0"/>
    </vehicle>
    <vehicle id="446" depart="892.00">
        <route edges="A1A0 A0B0 B0B1 B1A1"/>
    </vehicle>
    <vehicle id="449" depart="898.00">
        <route edges="B0A0"/>
    </vehicle>
    <vehicle id="453" depart="906.00">
        <route edges="B0B1"/>
    </vehicle>
    <vehicle id="454" depart="908.00">
        <route edges="A0A1 A1B1 B1B0 B0A0"/>
    </vehicle>
    <vehicle id="455" depart="910.00">
        <route edges="A1B1 B1B0"/>
    </vehicle>
    <vehicle id="456" depart="912.00">
        <route edges="A1A0 A0B0 B0B1 B1A1"/>
    </vehicle>
    <vehicle id="459" depart="918.00">
        <route edges="B0B1"/>
    </vehicle>
    <vehicle id="460" depart="920.00">
        <route edges="B0B1 B1A1"/>
    </vehicle>
    <vehicle id="462" depart="924.00">
        <route edges="B0B1 B1A1 A1A0"/>
    </vehicle>
    <vehicle id="463" depart="926.00">
        <route edges="A1B1 B1B0 B0A0"/>
    </vehicle>
    <vehicle id="465" depart="930.00">
        <route edges="A1A0 A0B0 B0B1"/>
    </vehicle>
    <vehicle id="466" depart="932.00">
        <route edges="A0B0"/>
    </vehicle>
    <vehicle id="467" depart="934.00">
        <route edges="B0A0 A0A1 A1B1 B1B0"/>
    </vehicle>
    <vehicle id="468" depart="936.00">
        <route edges="B0A0 A0A1 A1B1 B1B0"/>
    </vehicle>
    <vehicle id="469" depart="938.00">
        <route edges="B1A1 A1A0"/>
    </vehicle>
    <vehicle id="471" depart="942.00">
        <route edges="B1A1 A1A0 A0B0 B0B1"/>
    </vehicle>
    <vehicle id="477" depart="954.00">
        <route edges="A1A0 A0B0 B0B1 B1A1"/>
    </vehicle>
    <vehicle id="478" depart="956.00">
        <route edges="A0A1 A1B1 B1B0 B0A0"/>
    </vehicle>
    <vehicle id="483" depart="966.00">
        <route edges="A0A1 A1B1 B1B0"/>
    </vehicle>
    <vehicle id="484" depart="968.00">
        <route edges="B0A0 A0A1 A1B1 B1B0"/>
    </vehicle>
    <vehicle id="490" depart="980.00">
        <route edges="A0A1 A1B1 B1B0"/>
    </vehicle>
    <vehicle id="492" depart="984.00">
        <route edges="B0B1"/>
    </vehicle>
    <vehicle id="493" depart="986.00">
        <route edges="B1B0 B0A0 A0A1 A1B1"/>
    </vehicle>
    <vehicle id="494" depart="988.00">
        <route edges="B0B1 B1A1 A1A0 A0B0"/>
    </vehicle>
    <vehicle id="495" depart="990.00">
        <route edges="A1B1 B1B0 B0A0 A0A1"/>
    </vehicle>
    <vehicle id="496" depart="992.00">
        <route edges="A1B1"/>
    </vehicle>
    <vehicle id="497" depart="994.00">
        <route edges="B1B0 B0A0 A0A1"/>
    </vehicle>
    <vehicle id="501" depart="1002.00">
        <route edges="B0A0 A0A1 A1B1 B1B0"/>
    </vehicle>
    <vehicle id="505" depart="1010.00">
        <route edges="B0B1"/>
    </vehicle>
    <vehicle id="506" depart="1012.00">
        <route edges="B0A0 A0A1"/>
    </vehicle>
    <vehicle id="507" depart="1014.00">
        <route edges="B1A1 A1A0 A0B0"/>
    </vehicle>
    <vehicle id="510" depart="1020.00">
        <route edges="A0B0"/>
    </vehicle>
    <vehicle id="511" depart="1022.00">
        <route edges="B1A1 A1A0"/>
    </vehicle>
    <vehicle id="514" depart="1028.00">
        <route edges="A0B0"/>
    </vehicle>
    <vehicle id="515" depart="1030.00">
        <route edges="A1A0 A0B0"/>
    </vehicle>
    <vehicle id="518" depart="1036.00">
        <route edges="A0B0 B0B1 B1A1 A1A0"/>
    </vehicle>
    <vehicle id="523" depart="1046.00">
        <route edges="A0A1 A1B1 B1B0 B0A0"/>
    </vehicle>
    <vehicle id="524" depart="1048.00">
        <route edges="B1B0 B0A0 A0A1"/>
    </vehicle>
    <vehicle id="525" depart="1050.00">
        <route edges="B1A1"/>
    </vehicle>
    <vehicle id="526" depart="1052.00">
        <route edges="B0A0 A0A1 A1B1"/>
    </vehicle>
    <vehicle id="527" depart="1054.00">
        <route edges="B1B0 B0A0 A0A1"/>
    </vehicle>
    <vehicle id="528" depart="1056.00">
        <route edges="A1B1"/>
    </vehicle>
    <vehicle id="530" depart="1060.00">
        <route edges="B1B0 B0A0 A0A1"/>
    </vehicle>
    <vehicle id="531" depart="1062.00">
        <route edges="A0A1 A1B1 B1B0 B0A0"/>
    </vehicle>
    <vehicle id="535" depart="1070.00">
        <route edges="B0A0 A0A1 A1B1"/>
    </vehicle>
    <vehicle id="536" depart="1072.00">
        <route edges="B0A0 A0A1"/>
    </vehicle>
    <vehicle id="537" depart="1074.00">
        <route edges="B0B1 B1A1"/>
    </vehicle>
    <vehicle id="538" depart="1076.00">
        <route edges="B0B1 B1A1"/>
    </vehicle>
    <vehicle id="539" depart="1078.00">
        <route edges="B0B1 B1A1 A1A0 A0B0"/>
    </vehicle>
    <vehicle id="542" depart="1084.00">
        <route edges="A1B1 B1B0 B0A0 A0A1"/>
    </vehicle>
    <vehicle id="544" depart="1088.00">
        <route edges="A1A0 A0B0"/>
    </vehicle>
    <vehicle id="545" depart="1090.00">
        <route edges="B1B0 B0A0 A0A1"/>
    </vehicle>
    <vehicle id="549" depart="1098.00">
        <route edges="B0A0"/>
    </vehicle>
    <vehicle id="551" depart="1102.00">
        <route edges="A1A0 A0B0 B0B1"/>
    </vehicle>
    <vehicle id="552" depart="1104.00">
        <route edges="B1A1"/>
    </vehicle>
    <vehicle id="556" depart="1112.00">
        <route edges="B0B1 B1A1 A1A0 A0B0"/>
    </vehicle>
    <vehicle id="558" depart="1116.00">
        <route edges="A1A0 A0B0 B0B1 B1A1"/>
    </vehicle>
    <vehicle id="564" depart="1128.00">
        <route edges="A1A0 A0B0"/>
    </vehicle>
    <vehicle id="565" depart="1130.00">
        <route edges="B0B1 B1A1 A1A0"/>
    </vehicle>
    <vehicle id="570" depart="1140.00">
        <route edges="B0B1 B1A1 A1A0 A0B0"/>
    </vehicle>
    <vehicle id="572" depart="1144.00">
        <route edges="A1A0 A0B0 B0B1"/>
    </vehicle>
    <vehicle id="574" depart="1148.00">
        <route edges="A0A1"/>
    </vehicle>
    <vehicle id="576" depart="1152.00">
        <route edges="B0B1 B1A1 A1A0"/>
    </vehicle>
    <vehicle id="583" depart="1166.00">
        <route edges="A1B1 B1B0 B0A0"/>
    </vehicle>
    <vehicle id="585" depart="1170.00">
        <route edges="A0B0"/>
    </vehicle>
    <vehicle id="586" depart="1172.00">
        <route edges="A1A0"/>
    </vehicle>
    <vehicle id="590" depart="1180.00">
        <route edges="B1A1"/>
    </vehicle>
    <vehicle id="592" depart="1184.00">
        <route edges="A0A1"/>
    </vehicle>
    <vehicle id="594" depart="1188.00">
        <route edges="B0A0"/>
    </vehicle>
    <vehicle id="596" depart="1192.00">
        <route edges="A0A1"/>
    </vehicle>
    <vehicle id="597" depart="1194.00">
        <route edges="A1A0 A0B0 B0B1 B1A1"/>
    </vehicle>
    <vehicle id="599" depart="1198.00">
        <route edges="B1B0 B0A0 A0A1"/>
    </vehicle>
    <vehicle id="600" depart="1200.00">
        <route edges="B1A1 A1A0 A0B0"/>
    </vehicle>
    <vehicle id="601" depart="1202.00">
        <route edges="B0A0"/>
    </vehicle>
    <vehicle id="603" depart="1206.00">
        <route edges="A1A0"/>
    </vehicle>
    <vehicle id="605" depart="1210.00">
        <route edges="A0A1 A1B1 B1B0 B0A0"/>
    </vehicle>
    <vehicle id="607" depart="1214.00">
        <route edges="B0B1 B1A1"/>
    </vehicle>
    <vehicle id="608" depart="1216.00">
        <route edges="B1A1 A1A0 A0B0"/>
    </vehicle>
    <vehicle id="609" depart="1218.00">
        <route edges="A0B0"/>
    </vehicle>
    <vehicle id="611" depart="1222.00">
        <route edges="B0B1 B1A1 A1A0 A0B0"/>
    </vehicle>
    <vehicle id="613" depart="1226.00">
        <route edges="B1A1"/>
    </vehicle>
    <vehicle id="614" depart="1228.00">
        <route edges="A1B1 B1B0"/>
    </vehicle>
    <vehicle id="617" depart="1234.00">
        <route edges="B0B1 B1A1 A1A0 A0B0"/>
    </vehicle>
    <vehicle id="618" depart="1236.00">
        <route edges="A0A1 A1B1"/>
    </vehicle>
    <vehicle id="619" depart="1238.00">
        <route edges="A1A0"/>
    </vehicle>
    <vehicle id="620" depart="1240.00">
        <route edges="A0A1 A1B1 B1B0 B0A0"/>
    </vehicle>
    <vehicle id="625" depart="1250.00">
        <route edges="B0A0 A0A1 A1B1"/>
    </vehicle>
    <vehicle id="627" depart="1254.00">
        <route edges="B1B0 B0A0 A0A1 A1B1"/>
    </vehicle>
    <vehicle id="628" depart="1256.00">
        <route edges="B1A1 A1A0 A0B0 B0B1"/>
    </vehicle>
    <vehicle id="631" depart="1262.00">
        <route edges="A0A1 A1B1 B1B0"/>
    </vehicle>
    <vehicle id="632" depart="1264.00">
        <route edges="A1A0 A0B0 B0B1"/>
    </vehicle>
    <vehicle id="635" depart="1270.00">